CPDS_validation_cosim/Network_models/Distribution/34Bus/Network_34Bus_Losses.Txt

LOSSES REPORT

Power Delivery Element Loss Report

Element                  kW Losses    % of Power   kvar Losses

"Transformer.SUBXF"   0.00038,      0.0     0.0250955
"Line.L1"             0.85237,     0.09     -1.25948
"Line.L2"             0.55621,     0.06     -0.853112
"Line.L3"            10.12275,     1.07     -15.7754
"Line.L4"             0.00042,      0.0     -0.958216
"Line.L5"            11.67008,     1.26     -17.7668
"Line.L6"             9.33116,     1.02     -13.5263
"Line.L7"             0.00432,     0.00     -0.00499654
"Line.L8"             0.05710,     0.07     -0.262189
"Line.L9"             3.46140,     0.42     -5.55837
"Line.L10"            1.35456,     1.75     -7.3992
"Line.L11"            0.08044,     0.24     -2.23732
"Line.L12"            0.00152,     0.01     -0.512829
"Line.L13"            0.26780,     0.03     -0.463354
"Line.L14"            6.48066,     0.82     -11.1651
"Line.L15"            0.15427,     0.02     -0.286212
"Line.L16"            0.66162,     0.13     -3.3724
"Line.L17"            0.05725,     0.04     -1.49411
"Line.L18"            0.03152,     0.01     -0.195573
"Line.L19"            0.00069,      0.0     -0.647633
"Line.L20"            0.00017,      0.0     -0.210848
"Line.L21"            0.15231,     0.05     -0.94272
"Line.L22"            0.31253,     0.59     -2.59059
"Line.L23"            0.04818,     0.13     -0.375922
"Line.L24"            0.13388,     0.01     -0.154855
"Line.L25"            0.00266,     0.00     -0.00623487
"Transformer.XFM1"    3.84383,     1.64     8.25466
"Line.L26"            0.00011,      0.0     -3.88389
"Line.L27"           10.90532,     1.45     -19.9015
"Line.L28"            0.00000,      0.0     -0.292193
"Line.L29"            0.76409,     0.15     -4.01474
"Line.L30"            0.01495,     0.02     -2.01176
"Line.L31"            0.00073,      0.0     -0.898543
"Line.L32"           13.10053,     5.68     9.53027
"Capacitor.C844"      0.00000,      0.0     -325.884
"Capacitor.C848"      0.00000,      0.0     -489.133
"Transformer.REG1A"   0.02661,     0.01     0.0860546
"Transformer.REG1B"   0.01773,     0.01     0.0643011
"Transformer.REG1C"   0.01666,     0.01     0.0616573
"Transformer.REG2A"   0.01090,     0.00     0.0479664
"Transformer.REG2B"   0.01315,     0.01     0.0535312
"Transformer.REG2C"   0.01428,     0.01     0.0563943

LINE LOSSES=                        70.6 kW
TRANSFORMER LOSSES=                  3.9 kW

TOTAL LOSSES=                       74.5 kW

TOTAL LOAD POWER =                 896.1 kW
Percent Losses for Circuit =      8.32 %
